<?xml version="1.0" encoding="UTF-8"?>
<routes xmlns:xsi="http://www.w3.org/2001/XMLSchema-instance"
        xsi:noNamespaceSchemaLocation="http://sumo.dlr.de/xsd/routes_file.xsd">

  <vType id="bus_type"
         vClass="bus"
         length="12.0"
         maxSpeed="13.89"
         accel="1.2"
         decel="4.0"
         sigma="0.5"
         color="0,0,255"/>

  <vType id="emergency_type"
         vClass="emergency"
         length="6.5"
         maxSpeed="22.22"
         accel="3.0"
         decel="6.0"
         sigma="0.3"
         color="255,0,0"/>

  <!-- Bus: West → Ost, kommt zuerst und aktiviert TSP -->
  <trip id="bus_0"
        type="bus_type"
        depart="30"
        from="-219525493#1"
        to="-174904016"
        departLane="best"
        departSpeed="max"/>

  <!-- Emergency: kommt 10s später aus anderer Richtung,
       sollte Bus-TSP überstimmen -->
<trip id="emergency_0"
      type="emergency_type"
      depart="35"
      from="373042860#0"
      to="219525493#1"
      departLane="best"
      departPos="0"
      departSpeed="max"/>

</routes>