<?xml version="1.0" encoding="UTF-8"?>

<!-- generated on 2026-05-31 18:30:54.689527 by Eclipse SUMO randomTrips.py v1.26.0
<configuration>
    <net-file value="techcampus_tsp.net.xml"/>
    <output-trip-file value="background_trips.xml"/>
    <route-file value="background_traffic.rou.xml"/>
    <prefix value="car"/>
    <vehicle-class value="passenger"/>
    <min-distance value="100.0"/>
    <verbose value="True"/>
    <period value="5.0"/>
</configuration>
-->

<!-- generated on 2026-05-31T18:30:54.659097+01:00 by Eclipse SUMO duarouter 1.26.0
<duarouterConfiguration xmlns:xsi="http://www.w3.org/2001/XMLSchema-instance" xsi:noNamespaceSchemaLocation="http://sumo.dlr.de/xsd/duarouterConfiguration.xsd">

    <input>
        <net-file value="techcampus_tsp.net.xml"/>
        <route-files value="background_trips.xml"/>
    </input>

    <output>
        <output-file value="background_traffic.rou.xml"/>
        <alternatives-output value="NUL"/>
    </output>

    <time>
        <begin value="0"/>
        <end value="3600.0"/>
    </time>

    <report>
        <verbose value="true"/>
        <no-warnings value="true"/>
        <ignore-errors value="true"/>
        <no-step-log value="true"/>
    </report>

</duarouterConfiguration>
-->

<routes xmlns:xsi="http://www.w3.org/2001/XMLSchema-instance" xsi:noNamespaceSchemaLocation="http://sumo.dlr.de/xsd/routes_file.xsd">
    <vType id="car_passenger" vClass="passenger"/>
    <vehicle id="car0" type="car_passenger" depart="0.00">
        <route edges="-219525493#0 -1071307410 -834140092 -174904017 -174904016"/>
    </vehicle>
    <vehicle id="car1" type="car_passenger" depart="5.00">
        <route edges="-4211108#3 -4211108#2 4211108#2 4211108#3 -113626462#1"/>
    </vehicle>
    <vehicle id="car2" type="car_passenger" depart="10.00">
        <route edges="219525493#0 219525493#1 -219525493#1 -219525493#0 -1071307410 -834140092 -174904017 -174904016 -1436456312 1436456312 142707482 142709279#0 142709279#1"/>
    </vehicle>
    <vehicle id="car3" type="car_passenger" depart="15.00">
        <route edges="219525493#0 219525493#1 -219525493#1 -219525493#0 -1071307410 -834140092 36268957#2 219525485 174904014#0"/>
    </vehicle>
    <vehicle id="car4" type="car_passenger" depart="20.00">
        <route edges="-219525484#0 -174904014#1 -174904014#0 -219525485 -36268957#2 834140092 1071307410 219525493#0 219525493#1 -219525493#1 -219525493#0"/>
    </vehicle>
    <vehicle id="car5" type="car_passenger" depart="25.00">
        <route edges="-219525493#0 -1071307410 -834140092 36268957#2"/>
    </vehicle>
    <vehicle id="car6" type="car_passenger" depart="30.00">
        <route edges="-373042860#0 -136516921#2 136516921#2 373042860#0 373042860#1 142709278#0 142709278#1 -174904017 -174904016"/>
    </vehicle>
    <vehicle id="car7" type="car_passenger" depart="35.00">
        <route edges="219525485 174904014#0 -174904014#0 -219525485 -36268957#2 -174904013#0 -373042860#1"/>
    </vehicle>
    <vehicle id="car8" type="car_passenger" depart="40.00">
        <route edges="-1071307410 -834140092 36268957#2 219525485 174904014#0"/>
    </vehicle>
    <vehicle id="car9" type="car_passenger" depart="45.00">
        <route edges="-219525493#0 -1071307410 -834140092 -174904013#0 -373042860#1 -373042860#0 -136516921#2 136516921#2 373042860#0 373042860#1 142709278#0"/>
    </vehicle>
    <vehicle id="car10" type="car_passenger" depart="50.00">
        <route edges="113626462#1 113626462#3 113626462#4 113626462#5 113626462#6"/>
    </vehicle>
    <vehicle id="car11" type="car_passenger" depart="55.00">
        <route edges="-219525484#0 -174904014#1 -174904014#0 -219525485 -36268957#2 -174904017 -174904016"/>
    </vehicle>
    <vehicle id="car12" type="car_passenger" depart="60.00">
        <route edges="-219525484#1 -219525484#0 -174904014#1 -174904014#0 -219525485 -36268957#2 -174904013#0 -373042860#1 -373042860#0 -136516921#2 136516921#2 373042860#0 373042860#1 142709278#0 142709278#1"/>
    </vehicle>
    <vehicle id="car13" type="car_passenger" depart="65.00">
        <route edges="219525493#0 219525493#1 -219525493#1 -219525493#0 -1071307410 -834140092 36268957#2 219525485 174904014#0 -174904014#0"/>
    </vehicle>
    <vehicle id="car14" type="car_passenger" depart="70.00">
        <route edges="-219525484#1 -219525484#0 -174904014#1 -174904014#0 -219525485 -36268957#2 36268957#2"/>
    </vehicle>
    <vehicle id="car15" type="car_passenger" depart="75.00">
        <route edges="834140092 1071307410 219525493#0 219525493#1"/>
    </vehicle>
    <vehicle id="car16" type="car_passenger" depart="80.00">
        <route edges="-219525485 219525485 174904014#0 174904014#1 219525484#0 219525484#1"/>
    </vehicle>
    <vehicle id="car17" type="car_passenger" depart="85.00">
        <route edges="1071307410 219525493#0 219525493#1 -219525493#1 -219525493#0 -1071307410 -834140092 -174904013#0 -373042860#1"/>
    </vehicle>
    <vehicle id="car18" type="car_passenger" depart="90.00">
        <route edges="4211108#2 4211108#3 113626462#3 113626462#4 113626462#5 113626462#6 113626462#7 1196080082#0"/>
    </vehicle>
    <vehicle id="car19" type="car_passenger" depart="95.00">
        <route edges="-174904014#0 -219525485 -36268957#2 -174904013#0 -373042860#1 -373042860#0 -136516921#2 136516921#2 373042860#0 373042860#1"/>
    </vehicle>
    <vehicle id="car20" type="car_passenger" depart="100.00">
        <route edges="136516921#2 373042860#0 373042860#1 142709278#0 142709278#1 -174904017 -174904016 -1436456312 1436456312 142707482 142709279#0"/>
    </vehicle>
    <vehicle id="car21" type="car_passenger" depart="105.00">
        <route edges="-219525484#1 -219525484#0 -174904014#1 -174904014#0 -219525485 -36268957#2"/>
    </vehicle>
    <vehicle id="car22" type="car_passenger" depart="110.00">
        <route edges="142707482 174904017 834140092"/>
    </vehicle>
    <vehicle id="car23" type="car_passenger" depart="115.00">
        <route edges="142709279#0 142709279#1 219525485 174904014#0 -174904014#0 -219525485 -36268957#2 -174904013#0 -373042860#1 -373042860#0 -136516921#2 136516921#2 373042860#0"/>
    </vehicle>
    <vehicle id="car24" type="car_passenger" depart="120.00">
        <route edges="174904013#0 36268957#2 219525485 174904014#0 174904014#1 219525484#0 219525484#1 -219525484#1 -219525484#0 -174904014#1"/>
    </vehicle>
    <vehicle id="car25" type="car_passenger" depart="125.00">
        <route edges="142709278#0 142709278#1 -174904017 -174904016 -1436456312 1436456312 142707482 142709279#0 142709279#1 219525485 174904014#0 174904014#1 219525484#0 219525484#1 -219525484#1 -219525484#0"/>
    </vehicle>
    <vehicle id="car26" type="car_passenger" depart="130.00">
        <route edges="-1071307410 -834140092 36268957#2 219525485 174904014#0 174904014#1 219525484#0"/>
    </vehicle>
    <vehicle id="car27" type="car_passenger" depart="135.00">
        <route edges="142709278#0 142709278#1 -174904017 -174904016 -1436456312 1436456312 142707482 142709279#0 142709279#1 219525485 174904014#0 174904014#1 219525484#0 219525484#1 -219525484#1 -219525484#0"/>
    </vehicle>
    <vehicle id="car28" type="car_passenger" depart="140.00">
        <route edges="219525493#0 219525493#1 -219525493#1 -219525493#0 -1071307410 -834140092 36268957#2 219525485 174904014#0 -174904014#0 -219525485"/>
    </vehicle>
    <vehicle id="car29" type="car_passenger" depart="145.00">
        <route edges="-219525484#0 -174904014#1 -174904014#0 -219525485 -36268957#2 834140092 1071307410 219525493#0"/>
    </vehicle>
    <vehicle id="car30" type="car_passenger" depart="150.00">
        <route edges="219525485 174904014#0 -174904014#0 -219525485 -36268957#2 -174904017 -174904016"/>
    </vehicle>
    <vehicle id="car31" type="car_passenger" depart="155.00">
        <route edges="-1071307410 -834140092 36268957#2"/>
    </vehicle>
    <vehicle id="car32" type="car_passenger" depart="160.00">
        <route edges="-373042860#0 -136516921#2 136516921#2 373042860#0 373042860#1 174904013#0 834140092 1071307410 219525493#0 219525493#1 -219525493#1 -219525493#0"/>
    </vehicle>
    <vehicle id="car33" type="car_passenger" depart="165.00">
        <route edges="373042860#1 142709278#0 142709278#1 -174904017 -174904016 -1436456312 1436456312 142707482 142709279#0"/>
    </vehicle>
    <vehicle id="car34" type="car_passenger" depart="170.00">
        <route edges="-4211108#3 -4211108#2 4211108#2 4211108#3 113626462#3 113626462#4 113626462#5 113626462#6 113626462#7 1196080082#0"/>
    </vehicle>
    <vehicle id="car35" type="car_passenger" depart="175.00">
        <route edges="-834140092 36268957#2 219525485 174904014#0 174904014#1 219525484#0 219525484#1 -219525484#1 -219525484#0 -174904014#1"/>
    </vehicle>
    <vehicle id="car36" type="car_passenger" depart="180.00">
        <route edges="219525485 174904014#0 -174904014#0 -219525485 -36268957#2 -174904017 -174904016 -1436456312"/>
    </vehicle>
    <vehicle id="car37" type="car_passenger" depart="185.00">
        <route edges="142709279#1 219525485 174904014#0 -174904014#0 -219525485 -36268957#2 -174904017 -174904016"/>
    </vehicle>
    <vehicle id="car38" type="car_passenger" depart="190.00">
        <route edges="-219525484#1 -219525484#0 -174904014#1 -174904014#0 -219525485 -36268957#2 834140092 1071307410 219525493#0 219525493#1 -219525493#1 -219525493#0 -1071307410 -834140092"/>
    </vehicle>
    <vehicle id="car39" type="car_passenger" depart="195.00">
        <route edges="-373042860#1 -373042860#0 -136516921#2 136516921#2 373042860#0 373042860#1 142709278#0 142709278#1 -174904017 -174904016 -1436456312 1436456312 142707482"/>
    </vehicle>
    <vehicle id="car40" type="car_passenger" depart="200.00">
        <route edges="174904017 36268957#2 219525485 174904014#0 174904014#1 219525484#0"/>
    </vehicle>
    <vehicle id="car41" type="car_passenger" depart="205.00">
        <route edges="-174904014#1 -174904014#0 -219525485 -36268957#2 -174904013#0 -373042860#1 -373042860#0 -136516921#2 136516921#2 373042860#0 373042860#1"/>
    </vehicle>
    <vehicle id="car42" type="car_passenger" depart="210.00">
        <route edges="1071307410 219525493#0 219525493#1 -219525493#1 -219525493#0 -1071307410 -834140092 36268957#2 219525485"/>
    </vehicle>
    <vehicle id="car43" type="car_passenger" depart="215.00">
        <route edges="142709279#0 142709279#1 219525485 174904014#0 -174904014#0 -219525485 -36268957#2 834140092"/>
    </vehicle>
    <vehicle id="car44" type="car_passenger" depart="220.00">
        <route edges="136516921#2 373042860#0"/>
    </vehicle>
    <vehicle id="car45" type="car_passenger" depart="225.00">
        <route edges="-219525484#1 -219525484#0 -174904014#1 -174904014#0 -219525485 -36268957#2 -174904017 -174904016 -1436456312 1436456312 142707482"/>
    </vehicle>
    <vehicle id="car46" type="car_passenger" depart="230.00">
        <route edges="142709278#0 142709278#1 -174904017 -174904016 -1436456312 1436456312 142707482 142709279#0 142709279#1 219525485 174904014#0 -174904014#0 -219525485"/>
    </vehicle>
    <vehicle id="car47" type="car_passenger" depart="235.00">
        <route edges="-373042860#1 -373042860#0 -136516921#2 136516921#2 373042860#0 373042860#1 174904013#0 36268957#2 219525485 174904014#0 174904014#1 219525484#0 219525484#1 -219525484#1 -219525484#0 -174904014#1"/>
    </vehicle>
    <vehicle id="car48" type="car_passenger" depart="240.00">
        <route edges="-373042860#1 -373042860#0 -136516921#2 136516921#2 373042860#0 373042860#1 174904013#0 36268957#2 219525485 174904014#0 174904014#1"/>
    </vehicle>
    <vehicle id="car49" type="car_passenger" depart="245.00">
        <route edges="-219525484#0 -174904014#1 -174904014#0 -219525485 -36268957#2 -174904017 -174904016"/>
    </vehicle>
    <vehicle id="car50" type="car_passenger" depart="250.00">
        <route edges="-4211108#3 -4211108#2 4211108#2 4211108#3 -113626462#1"/>
    </vehicle>
    <vehicle id="car51" type="car_passenger" depart="255.00">
        <route edges="-373042860#0 -136516921#2 136516921#2 373042860#0 373042860#1 142709278#0 142709278#1 -174904017 -174904016 -1436456312"/>
    </vehicle>
    <vehicle id="car52" type="car_passenger" depart="260.00">
        <route edges="174904017 834140092 1071307410 219525493#0 219525493#1"/>
    </vehicle>
    <vehicle id="car53" type="car_passenger" depart="265.00">
        <route edges="142709278#1 -174904017 -174904016 -1436456312 1436456312 142707482 142709279#0 142709279#1 219525485 174904014#0 174904014#1 219525484#0"/>
    </vehicle>
    <vehicle id="car54" type="car_passenger" depart="270.00">
        <route edges="373042860#1 174904013#0 36268957#2 219525485 174904014#0 -174904014#0"/>
    </vehicle>
    <vehicle id="car55" type="car_passenger" depart="275.00">
        <route edges="-136516921#2 136516921#2 373042860#0 373042860#1 142709278#0 142709278#1"/>
    </vehicle>
    <vehicle id="car56" type="car_passenger" depart="280.00">
        <route edges="1436456312 142707482 142709279#0 142709279#1 219525485 174904014#0 174904014#1 219525484#0"/>
    </vehicle>
    <vehicle id="car57" type="car_passenger" depart="285.00">
        <route edges="-1196080082#0 -113626462#7 -113626462#6 -113626462#5 -113626462#4 -113626462#3 -113626462#1"/>
    </vehicle>
    <vehicle id="car58" type="car_passenger" depart="290.00">
        <route edges="1436456312 142707482"/>
    </vehicle>
    <vehicle id="car59" type="car_passenger" depart="295.00">
        <route edges="142709278#0 142709278#1 -174904017 -174904016 -1436456312 1436456312 142707482 174904017 834140092 1071307410 219525493#0 219525493#1"/>
    </vehicle>
    <vehicle id="car60" type="car_passenger" depart="300.00">
        <route edges="174904014#0 -174904014#0 -219525485 -36268957#2 -174904013#0 -373042860#1 -373042860#0 -136516921#2 136516921#2 373042860#0 373042860#1"/>
    </vehicle>
    <vehicle id="car61" type="car_passenger" depart="305.00">
        <route edges="-219525493#0 -1071307410 -834140092 36268957#2 219525485"/>
    </vehicle>
    <vehicle id="car62" type="car_passenger" depart="310.00">
        <route edges="1071307410 219525493#0 219525493#1 -219525493#1 -219525493#0 -1071307410 -834140092 -174904013#0 -373042860#1 -373042860#0 -136516921#2 136516921#2"/>
    </vehicle>
    <vehicle id="car63" type="car_passenger" depart="315.00">
        <route edges="1436456312 142707482 142709279#0 142709279#1 219525485 174904014#0 -174904014#0 -219525485"/>
    </vehicle>
    <vehicle id="car64" type="car_passenger" depart="320.00">
        <route edges="-1071307410 -834140092 -174904013#0 -373042860#1 -373042860#0 -136516921#2 136516921#2 373042860#0"/>
    </vehicle>
    <vehicle id="car65" type="car_passenger" depart="325.00">
        <route edges="1436456312 142707482 174904017 -174904013#0 -373042860#1 -373042860#0 -136516921#2 136516921#2 373042860#0 373042860#1 142709278#0"/>
    </vehicle>
    <vehicle id="car66" type="car_passenger" depart="330.00">
        <route edges="1436456312 142707482 142709279#0 142709279#1 219525485 174904014#0 -174904014#0 -219525485"/>
    </vehicle>
    <vehicle id="car67" type="car_passenger" depart="335.00">
        <route edges="-174904014#1 -174904014#0 -219525485 -36268957#2 834140092 1071307410 219525493#0 219525493#1 -219525493#1 -219525493#0 -1071307410"/>
    </vehicle>
    <vehicle id="car68" type="car_passenger" depart="340.00">
        <route edges="113626462#1 -4211108#3 -4211108#2"/>
    </vehicle>
    <vehicle id="car69" type="car_passenger" depart="345.00">
        <route edges="219525485 174904014#0 -174904014#0 -219525485 -36268957#2 -174904017 -174904016"/>
    </vehicle>
    <vehicle id="car70" type="car_passenger" depart="350.00">
        <route edges="113626462#5 113626462#6 113626462#7 1196080082#0 1196080082#1 -113626462#7 -113626462#6 -113626462#5 -113626462#4 -113626462#3 -4211108#3 -4211108#2"/>
    </vehicle>
    <vehicle id="car71" type="car_passenger" depart="355.00">
        <route edges="142707482 174904017 -174904013#0 -373042860#1 -373042860#0 -136516921#2 136516921#2"/>
    </vehicle>
    <vehicle id="car72" type="car_passenger" depart="360.00">
        <route edges="174904014#1 219525484#0 219525484#1 -219525484#1 -219525484#0 -174904014#1 -174904014#0 -219525485 -36268957#2 -174904013#0 -373042860#1 -373042860#0 -136516921#2 136516921#2 373042860#0"/>
    </vehicle>
    <vehicle id="car73" type="car_passenger" depart="365.00">
        <route edges="142709279#0 142709279#1 219525485 174904014#0 -174904014#0 -219525485 -36268957#2 -174904017 -174904016 -1436456312"/>
    </vehicle>
    <vehicle id="car74" type="car_passenger" depart="370.00">
        <route edges="136516921#2 373042860#0 373042860#1 174904013#0 834140092 1071307410 219525493#0 219525493#1 -219525493#1 -219525493#0"/>
    </vehicle>
    <vehicle id="car75" type="car_passenger" depart="375.00">
        <route edges="-219525484#0 -174904014#1 -174904014#0 -219525485 -36268957#2 -174904013#0 -373042860#1 -373042860#0 -136516921#2 136516921#2 373042860#0 373042860#1 174904013#0"/>
    </vehicle>
    <vehicle id="car76" type="car_passenger" depart="380.00">
        <route edges="1436456312 142707482 142709279#0 142709279#1"/>
    </vehicle>
    <vehicle id="car77" type="car_passenger" depart="385.00">
        <route edges="373042860#1 174904013#0 834140092"/>
    </vehicle>
    <vehicle id="car78" type="car_passenger" depart="390.00">
        <route edges="-219525493#1 -219525493#0 -1071307410 -834140092 -174904013#0 -373042860#1 -373042860#0 -136516921#2 136516921#2 373042860#0"/>
    </vehicle>
    <vehicle id="car79" type="car_passenger" depart="395.00">
        <route edges="174904017 36268957#2 219525485 174904014#0 174904014#1 219525484#0 219525484#1 -219525484#1 -219525484#0 -174904014#1"/>
    </vehicle>
    <vehicle id="car80" type="car_passenger" depart="400.00">
        <route edges="136516921#2 373042860#0 373042860#1 142709278#0 142709278#1 -174904017"/>
    </vehicle>
    <vehicle id="car81" type="car_passenger" depart="405.00">
        <route edges="-219525493#0 -1071307410 -834140092 36268957#2 219525485 174904014#0 174904014#1 219525484#0 219525484#1"/>
    </vehicle>
    <vehicle id="car82" type="car_passenger" depart="410.00">
        <route edges="-373042860#1 -373042860#0 -136516921#2 136516921#2 373042860#0 373042860#1 174904013#0 36268957#2"/>
    </vehicle>
    <vehicle id="car83" type="car_passenger" depart="415.00">
        <route edges="142709279#0 142709279#1 219525485 174904014#0 -174904014#0 -219525485 -36268957#2 834140092 1071307410 219525493#0"/>
    </vehicle>
    <vehicle id="car84" type="car_passenger" depart="420.00">
        <route edges="174904014#0 -174904014#0 -219525485 -36268957#2 -174904013#0 -373042860#1 -373042860#0"/>
    </vehicle>
    <vehicle id="car85" type="car_passenger" depart="425.00">
        <route edges="142709278#1 -174904017 -174904016 -1436456312 1436456312 142707482 174904017 -174904013#0 -373042860#1 -373042860#0 -136516921#2"/>
    </vehicle>
    <vehicle id="car86" type="car_passenger" depart="430.00">
        <route edges="113626462#1 -4211108#3 -4211108#2 4211108#2 4211108#3"/>
    </vehicle>
    <vehicle id="car87" type="car_passenger" depart="435.00">
        <route edges="174904014#1 219525484#0 219525484#1 -219525484#1 -219525484#0 -174904014#1 -174904014#0 -219525485 -36268957#2 -174904013#0 -373042860#1"/>
    </vehicle>
    <vehicle id="car88" type="car_passenger" depart="440.00">
        <route edges="-1071307410 -834140092 36268957#2 219525485"/>
    </vehicle>
    <vehicle id="car89" type="car_passenger" depart="445.00">
        <route edges="-219525493#1 -219525493#0 -1071307410 -834140092 36268957#2 219525485"/>
    </vehicle>
    <vehicle id="car90" type="car_passenger" depart="450.00">
        <route edges="142709279#0 142709279#1 219525485 174904014#0 -174904014#0 -219525485 -36268957#2 834140092 1071307410 219525493#0 219525493#1"/>
    </vehicle>
    <vehicle id="car91" type="car_passenger" depart="455.00">
        <route edges="-219525493#1 -219525493#0 -1071307410 -834140092 36268957#2 219525485 174904014#0 174904014#1"/>
    </vehicle>
    <vehicle id="car92" type="car_passenger" depart="460.00">
        <route edges="219525493#0 219525493#1 -219525493#1 -219525493#0 -1071307410 -834140092 36268957#2 219525485 174904014#0 174904014#1"/>
    </vehicle>
    <vehicle id="car93" type="car_passenger" depart="465.00">
        <route edges="142709279#0 142709279#1 219525485 174904014#0 174904014#1"/>
    </vehicle>
    <vehicle id="car94" type="car_passenger" depart="470.00">
        <route edges="174904014#1 219525484#0 219525484#1 -219525484#1 -219525484#0 -174904014#1 -174904014#0 -219525485 -36268957#2 -174904013#0 -373042860#1 -373042860#0 -136516921#2"/>
    </vehicle>
    <vehicle id="car95" type="car_passenger" depart="475.00">
        <route edges="-219525485 -36268957#2 -174904013#0"/>
    </vehicle>
    <vehicle id="car96" type="car_passenger" depart="480.00">
        <route edges="-1071307410 -834140092 36268957#2 219525485 174904014#0 174904014#1 219525484#0 219525484#1"/>
    </vehicle>
    <vehicle id="car97" type="car_passenger" depart="485.00">
        <route edges="4211108#2 4211108#3 113626462#3 113626462#4 113626462#5 113626462#6 113626462#7 1196080082#0 1196080082#1 -113626462#7 -113626462#6 -113626462#5 -113626462#4"/>
    </vehicle>
    <vehicle id="car98" type="car_passenger" depart="490.00">
        <route edges="142709279#1 219525485 174904014#0 -174904014#0 -219525485 -36268957#2 834140092 1071307410"/>
    </vehicle>
    <vehicle id="car99" type="car_passenger" depart="495.00">
        <route edges="142709278#1 -174904017 -174904016 -1436456312 1436456312 142707482 142709279#0 142709279#1 219525485 174904014#0 174904014#1 219525484#0"/>
    </vehicle>
    <vehicle id="car100" type="car_passenger" depart="500.00">
        <route edges="-834140092 -174904017 -174904016"/>
    </vehicle>
    <vehicle id="car101" type="car_passenger" depart="505.00">
        <route edges="174904014#0 -174904014#0 -219525485 -36268957#2 -174904013#0 -373042860#1 -373042860#0 -136516921#2 136516921#2 373042860#0 373042860#1"/>
    </vehicle>
    <vehicle id="car102" type="car_passenger" depart="510.00">
        <route edges="373042860#0 373042860#1 174904013#0 834140092 1071307410 219525493#0 219525493#1"/>
    </vehicle>
    <vehicle id="car103" type="car_passenger" depart="515.00">
        <route edges="-219525493#0 -1071307410 -834140092 -174904013#0"/>
    </vehicle>
    <vehicle id="car104" type="car_passenger" depart="520.00">
        <route edges="-373042860#0 -136516921#2"/>
    </vehicle>
    <vehicle id="car105" type="car_passenger" depart="525.00">
        <route edges="-174904014#0 -219525485 -36268957#2 -174904013#0 -373042860#1 -373042860#0 -136516921#2 136516921#2"/>
    </vehicle>
    <vehicle id="car106" type="car_passenger" depart="530.00">
        <route edges="142709279#0 142709279#1 219525485 174904014#0 -174904014#0 -219525485 -36268957#2 834140092 1071307410"/>
    </vehicle>
    <vehicle id="car107" type="car_passenger" depart="535.00">
        <route edges="142709279#1 219525485 174904014#0 -174904014#0 -219525485 -36268957#2 834140092 1071307410"/>
    </vehicle>
    <vehicle id="car108" type="car_passenger" depart="540.00">
        <route edges="-1071307410 -834140092 36268957#2 219525485 174904014#0 174904014#1"/>
    </vehicle>
    <vehicle id="car109" type="car_passenger" depart="545.00">
        <route edges="-113626462#4 -113626462#3 -113626462#1"/>
    </vehicle>
    <vehicle id="car110" type="car_passenger" depart="550.00">
        <route edges="-1196080082#1 -1196080082#0 -113626462#7 -113626462#6 -113626462#5 -113626462#4 -113626462#3 -113626462#1"/>
    </vehicle>
    <vehicle id="car111" type="car_passenger" depart="555.00">
        <route edges="142707482 174904017 834140092 1071307410 219525493#0 219525493#1"/>
    </vehicle>
    <vehicle id="car112" type="car_passenger" depart="560.00">
        <route edges="174904014#0 -174904014#0 -219525485 -36268957#2 834140092 1071307410 219525493#0"/>
    </vehicle>
    <vehicle id="car113" type="car_passenger" depart="565.00">
        <route edges="136516921#2 373042860#0 373042860#1 142709278#0 142709278#1 -174904017 -174904016 -1436456312 1436456312 142707482 174904017"/>
    </vehicle>
    <vehicle id="car114" type="car_passenger" depart="570.00">
        <route edges="219525484#0 219525484#1 -219525484#1 -219525484#0 -174904014#1 -174904014#0 -219525485 -36268957#2 834140092 1071307410"/>
    </vehicle>
    <vehicle id="car115" type="car_passenger" depart="575.00">
        <route edges="142709278#0 142709278#1 -174904017 -174904016 -1436456312 1436456312 142707482 174904017 -174904013#0 -373042860#1 -373042860#0 -136516921#2"/>
    </vehicle>
    <vehicle id="car116" type="car_passenger" depart="580.00">
        <route edges="-113626462#6 -113626462#5 -113626462#4 -113626462#3 -4211108#3 -4211108#2"/>
    </vehicle>
    <vehicle id="car117" type="car_passenger" depart="585.00">
        <route edges="219525493#0 219525493#1 -219525493#1 -219525493#0 -1071307410 -834140092 -174904013#0 -373042860#1 -373042860#0 -136516921#2 136516921#2 373042860#0 373042860#1 142709278#0"/>
    </vehicle>
    <vehicle id="car118" type="car_passenger" depart="590.00">
        <route edges="-219525493#1 -219525493#0 -1071307410 -834140092 -174904013#0 -373042860#1 -373042860#0"/>
    </vehicle>
    <vehicle id="car119" type="car_passenger" depart="595.00">
        <route edges="142709279#1 219525485 174904014#0 -174904014#0 -219525485 -36268957#2 834140092 1071307410 219525493#0 219525493#1 -219525493#1 -219525493#0"/>
    </vehicle>
    <vehicle id="car120" type="car_passenger" depart="600.00">
        <route edges="-36268957#2 36268957#2 219525485 174904014#0 174904014#1 219525484#0 219525484#1"/>
    </vehicle>
    <vehicle id="car121" type="car_passenger" depart="605.00">
        <route edges="373042860#1 174904013#0 834140092 1071307410"/>
    </vehicle>
    <vehicle id="car122" type="car_passenger" depart="610.00">
        <route edges="-36268957#2 -174904017 -174904016 -1436456312"/>
    </vehicle>
    <vehicle id="car123" type="car_passenger" depart="615.00">
        <route edges="219525493#0 219525493#1 -219525493#1 -219525493#0 -1071307410 -834140092 -174904017 -174904016 -1436456312"/>
    </vehicle>
    <vehicle id="car124" type="car_passenger" depart="620.00">
        <route edges="-834140092 -174904013#0 -373042860#1 -373042860#0"/>
    </vehicle>
    <vehicle id="car125" type="car_passenger" depart="625.00">
        <route edges="373042860#1 174904013#0 834140092"/>
    </vehicle>
    <vehicle id="car126" type="car_passenger" depart="630.00">
        <route edges="-219525484#1 -219525484#0 -174904014#1 -174904014#0 -219525485 -36268957#2 834140092"/>
    </vehicle>
    <vehicle id="car127" type="car_passenger" depart="635.00">
        <route edges="373042860#0 373042860#1 174904013#0 834140092 1071307410 219525493#0 219525493#1"/>
    </vehicle>
    <vehicle id="car128" type="car_passenger" depart="640.00">
        <route edges="142709278#1 -174904017 -174904016 -1436456312 1436456312 142707482 142709279#0 142709279#1 219525485 174904014#0 174904014#1 219525484#0 219525484#1"/>
    </vehicle>
    <vehicle id="car129" type="car_passenger" depart="645.00">
        <route edges="-136516921#2 136516921#2 373042860#0 373042860#1 174904013#0 834140092 1071307410 219525493#0 219525493#1 -219525493#1 -219525493#0"/>
    </vehicle>
    <vehicle id="car130" type="car_passenger" depart="650.00">
        <route edges="-136516921#2 136516921#2 373042860#0 373042860#1 174904013#0"/>
    </vehicle>
    <vehicle id="car131" type="car_passenger" depart="655.00">
        <route edges="-373042860#1 -373042860#0 -136516921#2 136516921#2 373042860#0 373042860#1 174904013#0 36268957#2 219525485 174904014#0 174904014#1 219525484#0 219525484#1"/>
    </vehicle>
    <vehicle id="car132" type="car_passenger" depart="660.00">
        <route edges="-219525484#1 -219525484#0 -174904014#1 -174904014#0 -219525485 -36268957#2 -174904013#0 -373042860#1 -373042860#0 -136516921#2"/>
    </vehicle>
    <vehicle id="car133" type="car_passenger" depart="665.00">
        <route edges="-219525484#1 -219525484#0 -174904014#1 -174904014#0 -219525485 -36268957#2 -174904013#0 -373042860#1 -373042860#0"/>
    </vehicle>
    <vehicle id="car134" type="car_passenger" depart="670.00">
        <route edges="142709278#0 142709278#1 -174904017 -174904016 -1436456312 1436456312 142707482 142709279#0 142709279#1 219525485"/>
    </vehicle>
    <vehicle id="car135" type="car_passenger" depart="675.00">
        <route edges="136516921#2 373042860#0 373042860#1 174904013#0 834140092 1071307410 219525493#0"/>
    </vehicle>
    <vehicle id="car136" type="car_passenger" depart="680.00">
        <route edges="142709279#1 219525485 174904014#0 -174904014#0 -219525485 -36268957#2 -174904013#0 -373042860#1 -373042860#0 -136516921#2 136516921#2 373042860#0"/>
    </vehicle>
    <vehicle id="car137" type="car_passenger" depart="685.00">
        <route edges="142709279#1 219525485 174904014#0 -174904014#0 -219525485 -36268957#2 -174904013#0 -373042860#1 -373042860#0 -136516921#2 136516921#2 373042860#0"/>
    </vehicle>
    <vehicle id="car138" type="car_passenger" depart="690.00">
        <route edges="174904014#1 219525484#0 219525484#1 -219525484#1 -219525484#0 -174904014#1 -174904014#0 -219525485 -36268957#2 834140092 1071307410"/>
    </vehicle>
    <vehicle id="car139" type="car_passenger" depart="695.00">
        <route edges="373042860#0 373042860#1 142709278#0 142709278#1 -174904017 -174904016 -1436456312 1436456312 142707482"/>
    </vehicle>
    <vehicle id="car140" type="car_passenger" depart="700.00">