<?xml version="1.0" encoding="UTF-8"?>

<!-- generated on 2026-05-31T16:05:25.789977+01:00 by Eclipse SUMO netedit 1.26.0
<neteditConfiguration xmlns:xsi="http://www.w3.org/2001/XMLSchema-instance" xsi:noNamespaceSchemaLocation="http://sumo.dlr.de/xsd/neteditConfiguration.xsd">

    <input>
        <sumo-net-file value="techcampus_tsp.net.xml"/>
    </input>

    <output>
        <output-file value="techcampus_tsp.net.xml"/>
        <output.street-names value="true"/>
    </output>

    <processing>
        <geometry.min-radius.fix.railways value="false"/>
        <geometry.avoid-overlap value="false"/>
        <geometry.max-grade.fix value="false"/>
        <offset.disable-normalization value="true"/>
        <lefthand value="0"/>
    </processing>

    <junctions>
        <no-turnarounds value="true"/>
        <junctions.corner-detail value="5"/>
        <junctions.limit-turn-speed value="5.50"/>
        <rectangular-lane-cut value="0"/>
    </junctions>

    <pedestrian>
        <walkingareas value="0"/>
    </pedestrian>

</neteditConfiguration>
-->

<net version="1.20" junctionCornerDetail="5" limitTurnSpeed="5.50" avoidOverlap="0" xmlns:xsi="http://www.w3.org/2001/XMLSchema-instance" xsi:noNamespaceSchemaLocation="http://sumo.dlr.de/xsd/net_file.xsd">

    <location netOffset="-515539.73,-5440677.72" convBoundary="0.00,0.00,511.03,587.48" origBoundary="9.206889,49.118271,9.221075,49.125922" projParameter="+proj=utm +zone=32 +ellps=WGS84 +datum=WGS84 +units=m +no_defs"/>

    <type id="highway.cycleway" priority="1" numLanes="1" speed="5.56" allow="bicycle" oneway="0" width="2.00"/>
    <type id="highway.footway" priority="1" numLanes="1" speed="2.78" allow="pedestrian" oneway="1" width="2.00"/>
    <type id="highway.path" priority="1" numLanes="1" speed="5.56" allow="pedestrian bicycle" oneway="0" width="2.00"/>
    <type id="highway.residential" priority="3" numLanes="1" speed="13.89" disallow="tram rail_urban rail rail_electric rail_fast ship container cable_car subway aircraft wheelchair scooter drone" oneway="0"/>
    <type id="highway.secondary" priority="11" numLanes="1" speed="27.78" disallow="tram rail_urban rail rail_electric rail_fast ship container cable_car subway aircraft wheelchair scooter drone" oneway="0"/>
    <type id="highway.service" priority="1" numLanes="1" speed="5.56" allow="pedestrian delivery bicycle" oneway="0"/>
    <type id="highway.tertiary" priority="10" numLanes="1" speed="22.22" disallow="tram rail_urban rail rail_electric rail_fast ship container cable_car subway aircraft wheelchair scooter drone" oneway="0"/>
    <type id="highway.tertiary_link" priority="5" numLanes="1" speed="22.22" disallow="tram rail_urban rail rail_electric rail_fast ship container cable_car subway aircraft wheelchair scooter drone" oneway="0"/>
    <type id="highway.track" priority="1" numLanes="1" speed="5.56" allow="pedestrian motorcycle moped bicycle" oneway="0"/>

    <edge id=":11099564021_0" function="internal">
        <lane id=":11099564021_0_0" index="0" allow="pedestrian delivery bicycle" speed="3.65" length="4.67" shape="447.75,208.32 448.98,209.07 449.41,209.86 449.04,210.67 447.87,211.52"/>
    </edge>
    <edge id=":11099564025_0" function="internal">
        <lane id=":11099564025_0_0" index="0" allow="pedestrian delivery bicycle" speed="3.65" length="4.67" shape="385.08,223.06 384.30,224.27 383.50,224.68 382.70,224.29 381.88,223.10"/>
    </edge>
    <edge id=":11099564031_0" function="internal">
        <lane id=":11099564031_0_0" index="0" allow="pedestrian delivery bicycle" speed="5.04" length="5.00" shape="363.43,128.35 362.08,128.59 361.13,129.20 360.58,130.19 360.43,131.55"/>
    </edge>
    <edge id=":11099564031_1" function="internal">
        <lane id=":11099564031_1_0" index="0" disallow="tram rail_urban rail rail_electric rail_fast ship container cable_car subway aircraft wheelchair scooter drone" speed="13.89" length="6.20" shape="363.43,128.35 357.23,128.55"/>
    </edge>
    <edge id=":11099564031_2" function="internal">
        <lane id=":11099564031_2_0" index="0" disallow="tram rail_urban rail rail_electric rail_fast ship container cable_car subway aircraft wheelchair scooter drone" speed="13.89" length="6.20" shape="357.13,125.35 363.33,125.16"/>
    </edge>
    <edge id=":11099564031_3" function="internal">
        <lane id=":11099564031_3_0" index="0" allow="pedestrian delivery bicycle" speed="6.08" length="1.68" shape="357.13,125.35 358.50,125.70 358.67,125.90"/>
    </edge>
    <edge id=":11099564031_4" function="internal">
        <lane id=":11099564031_4_0" index="0" allow="pedestrian delivery bicycle" speed="6.08" length="6.08" shape="358.67,125.90 359.51,126.85 360.15,128.80 360.43,131.55"/>
    </edge>
    <edge id=":11099564032_0" function="internal">
        <lane id=":11099564032_0_0" index="0" allow="pedestrian delivery bicycle" speed="2.78" length="6.12" shape="361.13,153.55 361.47,159.66"/>
    </edge>
    <edge id=":11099564032_1" function="internal">
        <lane id=":11099564032_1_0" index="0" allow="pedestrian delivery bicycle" speed="2.78" length="4.99" shape="361.13,153.55 360.98,154.91 360.43,155.89 359.48,156.51 358.14,156.75"/>
    </edge>
    <edge id=":11099564033_0" function="internal">
        <lane id=":11099564033_0_0" index="0" allow="pedestrian delivery bicycle" speed="2.78" length="5.10" shape="367.10,230.98 367.00,232.39 366.48,233.39 365.52,234.00 364.12,234.20"/>
    </edge>
    <edge id=":11099564035_0" function="internal">
        <lane id=":11099564035_0_0" index="0" allow="pedestrian delivery bicycle" speed="5.10" length="5.04" shape="333.13,132.44 332.86,131.07 332.23,130.11 331.24,129.55 329.90,129.39"/>
    </edge>
    <edge id=":11099564035_1" function="internal">
        <lane id=":11099564035_1_0" index="0" allow="pedestrian delivery bicycle" speed="6.05" length="7.83" shape="333.13,132.44 333.17,129.66 333.67,127.66 334.61,126.44 335.99,126.00"/>
    </edge>
    <edge id=":11099564035_2" function="internal">
        <lane id=":11099564035_2_0" index="0" disallow="tram rail_urban rail rail_electric rail_fast ship container cable_car subway aircraft wheelchair scooter drone" speed="13.89" length="6.20" shape="336.09,129.20 329.90,129.39"/>
    </edge>
    <edge id=":11099564035_3" function="internal">
        <lane id=":11099564035_3_0" index="0" disallow="tram rail_urban rail rail_electric rail_fast ship container cable_car subway aircraft wheelchair scooter drone" speed="13.89" length="6.20" shape="329.80,126.19 335.99,126.00"/>
    </edge>
    <edge id=":11099564036_0" function="internal">
        <lane id=":11099564036_0_0" index="0" allow="pedestrian delivery bicycle" speed="2.78" length="6.20" shape="334.75,160.72 334.39,154.53"/>
    </edge>
    <edge id=":11099564036_1" function="internal">
        <lane id=":11099564036_1_0" index="0" allow="pedestrian delivery bicycle" speed="2.78" length="5.03" shape="337.70,157.48 336.32,157.34 335.31,156.80 334.67,155.86 334.39,154.53"/>
    </edge>
    <edge id=":11099564037_0" function="internal">
        <lane id=":11099564037_0_0" index="0" disallow="tram rail_urban rail rail_electric rail_fast ship container cable_car subway aircraft wheelchair scooter drone" speed="13.89" length="5.00" shape="349.10,128.80 344.10,128.96"/>
    </edge>
    <edge id=":11099564037_1" function="internal">
        <lane id=":11099564037_1_0" index="0" disallow="tram rail_urban rail rail_electric rail_fast ship container cable_car subway aircraft wheelchair scooter drone" speed="13.89" length="5.00" shape="344.00,125.76 349.00,125.60"/>
    </edge>
    <edge id=":11099564038_0" function="internal">
        <lane id=":11099564038_0_0" index="0" allow="pedestrian delivery bicycle" speed="2.78" length="5.04" shape="350.16,157.04 345.13,157.22"/>
    </edge>
    <edge id=":11099564057_0" function="internal">
        <lane id=":11099564057_0_0" index="0" allow="pedestrian bicycle" speed="5.56" length="5.10" width="2.00" shape="371.28,251.95 366.19,251.55"/>
    </edge>
    <edge id=":11099564057_1" function="internal">
        <lane id=":11099564057_1_0" index="0" allow="pedestrian bicycle" speed="2.89" length="2.42" width="2.00" shape="371.28,251.95 370.56,251.40 370.35,250.89 370.63,250.40 370.97,250.21"/>
    </edge>
    <edge id=":11099564057_4" function="internal">
        <lane id=":11099564057_4_0" index="0" allow="pedestrian bicycle" speed="2.89" length="0.50" width="2.00" shape="370.97,250.21 371.41,249.95"/>
    </edge>
    <edge id=":11099564057_2" function="internal">
        <lane id=":11099564057_2_0" index="0" allow="pedestrian bicycle" speed="5.56" length="5.06" width="2.00" shape="366.37,249.56 371.41,249.95"/>
    </edge>
    <edge id=":11099564057_3" function="internal">
        <lane id=":11099564057_3_0" index="0" allow="pedestrian bicycle" speed="2.89" length="0.79" width="2.00" shape="366.37,249.56 366.99,250.05"/>
    </edge>
    <edge id=":11099564057_5" function="internal">
        <lane id=":11099564057_5_0" index="0" allow="pedestrian bicycle" speed="2.89" length="2.13" width="2.00" shape="366.99,250.05 367.07,250.12 367.28,250.64 366.98,251.12 366.19,251.55"/>
    </edge>
    <edge id=":11099564077_0" function="internal">
        <lane id=":11099564077_0_0" index="0" allow="pedestrian delivery bicycle" speed="3.65" length="4.67" shape="317.53,141.67 316.74,142.88 315.94,143.28 315.14,142.88 314.33,141.69"/>
    </edge>
    <edge id=":1262361134_0" function="internal">
        <lane id=":1262361134_0_0" index="0" allow="pedestrian delivery bicycle" speed="3.65" length="4.67" shape="346.21,281.84 346.96,280.61 347.75,280.18 348.56,280.55 349.41,281.72"/>
    </edge>
    <edge id=":1262361160_0" function="internal">
        <lane id=":1262361160_0_0" index="0" allow="pedestrian delivery bicycle" speed="3.65" length="4.67" shape="330.82,289.04 331.55,287.80 332.33,287.35 333.15,287.71 334.02,288.86"/>
    </edge>
    <edge id=":1262361163_0" function="internal">
        <lane id=":1262361163_0_0" index="0" allow="pedestrian delivery bicycle" speed="5.56" length="11.85" shape="320.77,299.92 317.53,299.79 314.92,299.31 312.39,298.43 309.37,297.16"/>
    </edge>
    <edge id=":1262361163_1" function="internal">
        <lane id=":1262361163_1_0" index="0" allow="pedestrian delivery bicycle" speed="5.56" length="11.79" shape="320.77,299.92 318.11,299.44 316.11,297.91 314.78,295.34 314.13,291.72"/>
    </edge>
    <edge id=":1262361163_2" function="internal">
        <lane id=":1262361163_2_0" index="0" allow="pedestrian delivery bicycle" speed="3.65" length="4.67" shape="320.77,299.92 319.56,299.14 319.15,298.34 319.54,297.54 320.73,296.72"/>
    </edge>
    <edge id=":1262361163_3" function="internal">
        <lane id=":1262361163_3_0" index="0" allow="pedestrian delivery bicycle" speed="5.56" length="6.91" shape="317.32,291.48 317.69,293.79 318.38,295.43 319.39,296.41 320.73,296.72"/>
    </edge>
    <edge id=":1262361163_4" function="internal">
        <lane id=":1262361163_4_0" index="0" allow="pedestrian delivery bicycle" speed="5.56" length="13.08" shape="317.32,291.48 317.10,295.36 315.70,297.61 313.12,298.21 309.37,297.16"/>
    </edge>
    <edge id=":1262361163_5" function="internal">
        <lane id=":1262361163_5_0" index="0" allow="pedestrian delivery bicycle" speed="3.65" length="4.67" shape="317.32,291.48 316.61,292.73 315.85,293.19 315.02,292.86 314.13,291.72"/>
    </edge>
    <edge id=":1262361163_6" function="internal">
        <lane id=":1262361163_6_0" index="0" allow="pedestrian delivery bicycle" speed="4.69" length="5.74" shape="310.64,294.22 312.29,294.68 313.42,294.42 314.03,293.43 314.13,291.72"/>
    </edge>
    <edge id=":1262361163_7" function="internal">
        <lane id=":1262361163_7_0" index="0" allow="pedestrian delivery bicycle" speed="5.56" length="10.53" shape="310.64,294.22 313.45,295.45 315.53,296.24 317.69,296.64 320.73,296.72"/>
    </edge>
    <edge id=":1262361163_8" function="internal">
        <lane id=":1262361163_8_0" index="0" allow="pedestrian delivery bicycle" speed="3.65" length="4.67" shape="310.64,294.22 311.42,295.43 311.47,296.32 310.79,296.90 309.37,297.16"/>
    </edge>
    <edge id=":1262361182_0" function="internal">
        <lane id=":1262361182_0_0" index="0" allow="pedestrian delivery bicycle" speed="5.56" length="9.40" shape="375.57,333.13 375.18,323.74"/>
    </edge>
    <edge id=":1262361182_1" function="internal">
        <lane id=":1262361182_1_0" index="0" allow="pedestrian delivery bicycle" speed="5.56" length="10.16" shape="375.57,333.13 375.85,330.37 376.96,328.36 378.88,327.09 381.62,326.57"/>
    </edge>
    <edge id=":1262361182_2" function="internal">
        <lane id=":1262361182_2_0" index="0" allow="pedestrian delivery bicycle" speed="3.65" length="4.67" shape="375.57,333.13 376.32,331.90 377.11,331.47 377.92,331.84 378.77,333.00"/>
    </edge>
    <edge id=":1262361182_3" function="internal">
        <lane id=":1262361182_3_0" index="0" allow="pedestrian delivery bicycle" speed="5.06" length="5.02" shape="381.77,329.77 380.41,330.02 379.46,330.65 378.91,331.64 378.77,333.00"/>
    </edge>
    <edge id=":1262361182_4" function="internal">
        <lane id=":1262361182_4_0" index="0" allow="pedestrian delivery bicycle" speed="5.56" length="10.19" shape="381.77,329.77 378.99,329.50 376.96,328.41 375.69,326.49 375.18,323.74"/>
    </edge>
    <edge id=":1262361182_5" function="internal">
        <lane id=":1262361182_5_0" index="0" allow="pedestrian delivery bicycle" speed="3.65" length="4.67" shape="381.77,329.77 380.53,329.02 380.09,328.24 380.46,327.43 381.62,326.57"/>
    </edge>
    <edge id=":1262361182_6" function="internal">
        <lane id=":1262361182_6_0" index="0" allow="pedestrian delivery bicycle" speed="5.03" length="5.01" shape="378.38,323.61 378.63,324.96 379.26,325.90 380.25,326.44 381.62,326.57"/>
    </edge>
    <edge id=":1262361182_7" function="internal">
        <lane id=":1262361182_7_0" index="0" allow="pedestrian delivery bicycle" speed="5.56" length="9.40" shape="378.38,323.61 378.77,333.00"/>
    </edge>
    <edge id=":1262361182_8" function="internal">
        <lane id=":1262361182_8_0" index="0" allow="pedestrian delivery bicycle" speed="3.65" length="4.67" shape="378.38,323.61 377.63,324.84 376.85,325.28 376.03,324.91 375.18,323.74"/>
    </edge>
    <edge id=":1262361223_0" function="internal">
        <lane id=":1262361223_0_0" index="0" allow="pedestrian delivery bicycle" speed="5.01" length="5.03" shape="435.60,318.38 435.35,317.02 434.73,316.07 433.72,315.55 432.35,315.44"/>
    </edge>
    <edge id=":1262361223_1" function="internal">
        <lane id=":1262361223_1_0" index="0" allow="pedestrian delivery bicycle" speed="5.56" length="9.40" shape="435.60,318.38 435.26,308.98"/>
    </edge>
    <edge id=":1262361223_2" function="internal">
        <lane id=":1262361223_2_0" index="0" allow="pedestrian delivery bicycle" speed="3.65" length="4.67" shape="435.60,318.38 436.35,317.15 437.14,316.72 437.95,317.09 438.79,318.26"/>
    </edge>
    <edge id=":1262361223_3" function="internal">
        <lane id=":1262361223_3_0" index="0" allow="pedestrian delivery bicycle" speed="5.56" length="9.40" shape="438.46,308.87 438.79,318.26"/>
    </edge>
    <edge id=":1262361223_4" function="internal">
        <lane id=":1262361223_4_0" index="0" allow="pedestrian delivery bicycle" speed="5.56" length="10.17" shape="438.46,308.87 438.16,311.59 437.04,313.60 435.10,314.88 432.35,315.44"/>
    </edge>
    <edge id=":1262361223_5" function="internal">
        <lane id=":1262361223_5_0" index="0" allow="pedestrian delivery bicycle" speed="3.65" length="4.67" shape="438.46,308.87 437.70,310.10 436.91,310.53 436.10,310.16 435.26,308.98"/>
    </edge>
    <edge id=":1262361223_6" function="internal">
        <lane id=":1262361223_6_0" index="0" allow="pedestrian delivery bicycle" speed="5.13" length="5.11" shape="432.15,312.24 433.55,311.96 434.53,311.33 435.10,310.33 435.26,308.98"/>
    </edge>
    <edge id=":1262361223_7" function="internal">
        <lane id=":1262361223_7_0" index="0" allow="pedestrian delivery bicycle" speed="5.56" length="10.29" shape="432.15,312.24 434.97,312.47 437.01,313.55 438.29,315.48 438.79,318.26"/>
    </edge>
    <edge id=":1262361223_8" function="internal">
        <lane id=":1262361223_8_0" index="0" allow="pedestrian delivery bicycle" speed="3.65" length="4.67" shape="432.15,312.24 433.39,312.96 433.84,313.74 433.49,314.56 432.35,315.44"/>
    </edge>
    <edge id=":1262361229_0" function="internal">
        <lane id=":1262361229_0_0" index="0" allow="pedestrian delivery bicycle" speed="3.65" length="4.67" shape="361.03,294.75 362.25,295.52 362.67,296.31 362.29,297.12 361.11,297.95"/>
    </edge>
    <edge id=":1262361315_0" function="internal">
        <lane id=":1262361315_0_0" index="0" allow="pedestrian delivery bicycle" speed="3.65" length="4.67" shape="332.64,407.15 332.20,408.52 331.54,409.13 330.66,408.96 329.56,408.03"/>
    </edge>
    <edge id=":1262361317_0" function="internal">
        <lane id=":1262361317_0_0" index="0" allow="pedestrian delivery bicycle" speed="3.65" length="4.67" shape="297.15,291.89 296.36,290.68 296.31,289.79 296.99,289.21 298.41,288.95"/>
    </edge>
    <edge id=":1262361327_0" function="internal">
        <lane id=":1262361327_0_0" index="0" allow="pedestrian delivery bicycle" speed="3.65" length="4.67" shape="434.81,296.34 435.57,295.11 436.35,294.68 437.17,295.05 438.01,296.22"/>
    </edge>
    <edge id=":1262361333_0" function="internal">
        <lane id=":1262361333_0_0" index="0" allow="pedestrian delivery bicycle" speed="3.65" length="4.67" shape="398.79,286.96 400.02,287.71 400.46,288.49 400.09,289.31 398.93,290.16"/>
    </edge>
    <edge id=":1262361362_0" function="internal">
        <lane id=":1262361362_0_0" index="0" allow="pedestrian delivery bicycle" speed="5.56" length="9.40" shape="337.52,299.70 328.12,299.82"/>
    </edge>
    <edge id=":1262361362_1" function="internal">
        <lane id=":1262361362_1_0" index="0" allow="pedestrian delivery bicycle" speed="5.56" length="10.17" shape="337.52,299.70 334.83,299.34 332.86,298.17 331.61,296.20 331.07,293.42"/>
    </edge>
    <edge id=":1262361362_2" function="internal">
        <lane id=":1262361362_2_0" index="0" allow="pedestrian delivery bicycle" speed="3.65" length="4.67" shape="337.52,299.70 336.31,298.92 335.90,298.12 336.29,297.32 337.48,296.50"/>
    </edge>
    <edge id=":1262361362_3" function="internal">
        <lane id=":1262361362_3_0" index="0" allow="pedestrian delivery bicycle" speed="5.19" length="5.18" shape="334.26,293.24 334.54,294.68 335.16,295.71 336.14,296.31 337.48,296.50"/>
    </edge>
    <edge id=":1262361362_4" function="internal">
        <lane id=":1262361362_4_0" index="0" allow="pedestrian delivery bicycle" speed="5.56" length="10.38" shape="334.26,293.24 334.02,296.09 332.91,298.13 330.95,299.38 328.12,299.82"/>
    </edge>
    <edge id=":1262361362_5" function="internal">
        <lane id=":1262361362_5_0" index="0" allow="pedestrian delivery bicycle" speed="3.65" length="4.67" shape="334.26,293.24 333.53,294.48 332.76,294.92 331.94,294.57 331.07,293.42"/>
    </edge>
    <edge id=":1262361362_6" function="internal">
        <lane id=":1262361362_6_0" index="0" allow="pedestrian delivery bicycle" speed="4.99" length="5.05" shape="328.08,296.62 329.45,296.41 330.41,295.80 330.95,294.80 331.07,293.42"/>
    </edge>
    <edge id=":1262361362_7" function="internal">
        <lane id=":1262361362_7_0" index="0" allow="pedestrian delivery bicycle" speed="5.56" length="9.40" shape="328.08,296.62 337.48,296.50"/>
    </edge>
    <edge id=":1262361362_8" function="internal">
        <lane id=":1262361362_8_0" index="0" allow="pedestrian delivery bicycle" speed="3.65" length="4.67" shape="328.08,296.62 329.29,297.41 329.70,298.20 329.31,299.01 328.12,299.82"/>
    </edge>
    <edge id=":1262361463_0" function="internal">
        <lane id=":1262361463_0_0" index="0" allow="pedestrian delivery bicycle" speed="3.65" length="4.67" shape="453.31,360.97 454.53,361.74 454.95,362.53 454.57,363.34 453.39,364.17"/>
    </edge>
    <edge id=":1262361518_0" function="internal">
        <lane id=":1262361518_0_0" index="0" allow="pedestrian delivery bicycle" speed="5.06" length="5.02" shape="395.88,348.34 395.63,346.98 395.01,346.02 394.02,345.47 392.66,345.32"/>
    </edge>
    <edge id=":1262361518_1" function="internal">
        <lane id=":1262361518_1_0" index="0" allow="pedestrian delivery bicycle" speed="6.86" length="10.19" shape="395.88,348.34 396.16,345.56 397.26,343.54 399.19,342.29 401.94,341.79"/>
    </edge>
    <edge id=":1262361518_2" function="internal">
        <lane id=":1262361518_2_0" index="0" allow="pedestrian delivery bicycle" speed="3.65" length="4.67" shape="395.88,348.34 396.63,347.11 397.41,346.68 398.23,347.04 399.08,348.21"/>
    </edge>
    <edge id=":1262361518_3" function="internal">
        <lane id=":1262361518_3_0" index="0" allow="pedestrian delivery bicycle" speed="5.03" length="5.01" shape="402.05,344.99 400.70,345.23 399.76,345.85 399.21,346.84 399.08,348.21"/>
    </edge>
    <edge id=":1262361518_4" function="internal">
        <lane id=":1262361518_4_0" index="0" disallow="tram rail_urban rail rail_electric rail_fast ship container cable_car subway aircraft wheelchair scooter drone" speed="13.89" length="9.40" shape="402.05,344.99 392.66,345.32"/>
    </edge>
    <edge id=":1262361518_5" function="internal">
        <lane id=":1262361518_5_0" index="0" disallow="tram rail_urban rail rail_electric rail_fast ship container cable_car subway aircraft wheelchair scooter drone" speed="13.89" length="9.40" shape="392.55,342.13 401.94,341.79"/>
    </edge>
    <edge id=":1262361518_6" function="internal">
        <lane id=":1262361518_6_0" index="0" allow="pedestrian delivery bicycle" speed="6.88" length="3.25" shape="392.55,342.13 395.31,342.42 395.72,342.65"/>
    </edge>
    <edge id=":1262361518_7" function="internal">
        <lane id=":1262361518_7_0" index="0" allow="pedestrian delivery bicycle" speed="6.88" length="6.91" shape="395.72,342.65 397.31,343.54 398.57,345.46 399.08,348.21"/>
    </edge>
    <edge id=":1262361589_0" function="internal">
        <lane id=":1262361589_0_0" index="0" allow="pedestrian delivery bicycle" speed="5.56" length="9.49" shape="427.23,327.63 417.75,328.08"/>
    </edge>
    <edge id=":1262361589_1" function="internal">
        <lane id=":1262361589_1_0" index="0" allow="pedestrian delivery bicycle" speed="5.56" length="10.99" shape="427.23,327.63 424.16,327.33 422.08,326.11 421.00,323.96 420.90,320.87"/>
    </edge>
    <edge id=":1262361589_2" function="internal">
        <lane id=":1262361589_2_0" index="0" allow="pedestrian delivery bicycle" speed="3.65" length="4.67" shape="427.23,327.63 425.99,326.89 425.56,326.11 425.92,325.29 427.08,324.43"/>
    </edge>
    <edge id=":1262361589_3" function="internal">
        <lane id=":1262361589_3_0" index="0" allow="pedestrian delivery bicycle" speed="4.89" length="5.20" shape="424.08,321.23 424.13,322.69 424.64,323.71 425.63,324.29 427.08,324.43"/>
    </edge>
    <edge id=":1262361589_4" function="internal">
        <lane id=":1262361589_4_0" index="0" allow="pedestrian delivery bicycle" speed="5.56" length="10.28" shape="424.08,321.23 423.41,324.13 422.13,326.23 420.24,327.55 417.75,328.08"/>
    </edge>
    <edge id=":1262361589_5" function="internal">
        <lane id=":1262361589_5_0" index="0" allow="pedestrian delivery bicycle" speed="3.65" length="4.67" shape="424.08,321.23 423.15,322.34 422.31,322.64 421.56,322.15 420.90,320.87"/>
    </edge>
    <edge id=":1262361589_6" function="internal">
        <lane id=":1262361589_6_0" index="0" allow="pedestrian delivery bicycle" speed="5.56" length="5.71" shape="417.60,324.88 418.88,324.58 419.86,323.81 420.53,322.57 420.90,320.87"/>
    </edge>
    <edge id=":1262361589_7" function="internal">
        <lane id=":1262361589_7_0" index="0" allow="pedestrian delivery bicycle" speed="5.56" length="9.48" shape="417.60,324.88 427.08,324.43"/>
    </edge>
    <edge id=":1262361589_8" function="internal">
        <lane id=":1262361589_8_0" index="0" allow="pedestrian delivery bicycle" speed="3.65" length="4.67" shape="417.60,324.88 418.84,325.62 419.28,326.40 418.92,327.22 417.75,328.08"/>
    </edge>
    <edge id=":1262361606_0" function="internal">
        <lane id=":1262361606_0_0" index="0" allow="pedestrian delivery bicycle" speed="3.65" length="4.67" shape="277.32,281.37 276.37,280.29 276.20,279.41 276.79,278.74 278.16,278.29"/>
    </edge>
    <edge id=":1262361640_0" function="internal">
        <lane id=":1262361640_0_0" index="0" allow="pedestrian delivery bicycle" speed="3.65" length="4.67" shape="361.86,311.05 363.08,311.82 363.50,312.61 363.12,313.42 361.94,314.25"/>
    </edge>
    <edge id=":1262361648_0" function="internal">
        <lane id=":1262361648_0_0" index="0" allow="pedestrian delivery bicycle" speed="5.56" length="9.40" shape="347.60,317.79 347.24,308.40"/>
    </edge>
    <edge id=":1262361648_1" function="internal">
        <lane id=":1262361648_1_0" index="0" allow="pedestrian delivery bicycle" speed="5.56" length="10.22" shape="347.60,317.79 347.89,315.01 349.01,312.99 350.95,311.74 353.71,311.27"/>
    </edge>
    <edge id=":1262361648_2" function="internal">
        <lane id=":1262361648_2_0" index="0" allow="pedestrian delivery bicycle" speed="3.65" length="4.67" shape="347.60,317.79 348.36,316.56 349.14,316.13 349.96,316.50 350.80,317.67"/>
    </edge>
    <edge id=":1262361648_3" function="internal">
        <lane id=":1262361648_3_0" index="0" allow="pedestrian delivery bicycle" speed="5.03" length="5.01" shape="353.80,314.47 352.44,314.70 351.49,315.31 350.94,316.30 350.80,317.67"/>
    </edge>
    <edge id=":1262361648_4" function="internal">
        <lane id=":1262361648_4_0" index="0" allow="pedestrian delivery bicycle" speed="5.56" length="10.16" shape="353.80,314.47 351.02,314.16 349.00,313.04 347.74,311.12 347.24,308.40"/>
    </edge>
    <edge id=":1262361648_5" function="internal">
        <lane id=":1262361648_5_0" index="0" allow="pedestrian delivery bicycle" speed="3.65" length="4.67" shape="353.80,314.47 352.58,313.70 352.16,312.91 352.53,312.10 353.71,311.27"/>
    </edge>
    <edge id=":1262361648_6" function="internal">
        <lane id=":1262361648_6_0" index="0" allow="pedestrian delivery bicycle" speed="5.08" length="5.05" shape="350.44,308.28 350.69,309.62 351.32,310.57 352.32,311.12 353.71,311.27"/>
    </edge>
    <edge id=":1262361648_7" function="internal">
        <lane id=":1262361648_7_0" index="0" allow="pedestrian delivery bicycle" speed="5.56" length="9.40" shape="350.44,308.28 350.80,317.67"/>
    </edge>
    <edge id=":1262361648_8" function="internal">
        <lane id=":1262361648_8_0" index="0" allow="pedestrian delivery bicycle" speed="3.65" length="4.67" shape="350.44,308.28 349.68,309.51 348.90,309.94 348.08,309.57 347.24,308.40"/>
    </edge>
    <edge id=":1262361663_0" function="internal">
        <lane id=":1262361663_0_0" index="0" disallow="tram rail_urban rail rail_electric rail_fast ship container cable_car subway aircraft wheelchair scooter drone" speed="13.89" length="7.48" shape="380.44,345.76 372.96,346.02"/>
    </edge>
    <edge id=":1262361663_1" function="internal">
        <lane id=":1262361663_1_0" index="0" allow="pedestrian delivery bicycle" speed="6.40" length="2.28" shape="380.44,345.76 378.52,345.43 378.26,345.22"/>
    </edge>
    <edge id=":1262361663_7" function="internal">
        <lane id=":1262361663_7_0" index="0" allow="pedestrian delivery bicycle" speed="6.40" length="6.38" shape="378.26,345.22 377.12,344.30 376.22,342.36 375.84,339.61"/>
    </edge>
    <edge id=":1262361663_2" function="internal">
        <lane id=":1262361663_2_0" index="0" allow="pedestrian delivery bicycle" speed="4.43" length="3.61" shape="379.04,339.48 379.16,340.84 379.42,341.81 379.81,342.38 380.32,342.56"/>
    </edge>
    <edge id=":1262361663_3" function="internal">
        <lane id=":1262361663_3_0" index="0" allow="pedestrian delivery bicycle" speed="6.86" length="10.20" shape="379.04,339.48 378.75,342.26 377.65,344.28 375.72,345.53 372.96,346.02"/>
    </edge>
    <edge id=":1262361663_4" function="internal">
        <lane id=":1262361663_4_0" index="0" allow="pedestrian delivery bicycle" speed="3.65" length="4.67" shape="379.04,339.48 378.29,340.71 377.50,341.14 376.69,340.77 375.84,339.61"/>
    </edge>
    <edge id=":1262361663_5" function="internal">
        <lane id=":1262361663_5_0" index="0" allow="pedestrian delivery bicycle" speed="5.03" length="5.01" shape="372.86,342.82 374.21,342.58 375.16,341.96 375.70,340.97 375.84,339.61"/>
    </edge>
    <edge id=":1262361663_6" function="internal">
        <lane id=":1262361663_6_0" index="0" disallow="tram rail_urban rail rail_electric rail_fast ship container cable_car subway aircraft wheelchair scooter drone" speed="13.89" length="7.47" shape="372.86,342.82 380.32,342.56"/>
    </edge>
    <edge id=":1262361672_0" function="internal">
        <lane id=":1262361672_0_0" index="0" allow="pedestrian delivery bicycle" speed="4.74" length="4.34" shape="375.02,319.81 374.82,318.45 374.36,317.50 373.63,316.95 372.64,316.81"/>
    </edge>
    <edge id=":1262361672_1" function="internal">
        <lane id=":1262361672_1_0" index="0" allow="pedestrian delivery bicycle" speed="5.56" length="10.17" shape="375.02,319.81 375.29,317.02 376.38,314.97 378.27,313.68 380.97,313.13"/>
    </edge>
    <edge id=":1262361672_2" function="internal">
        <lane id=":1262361672_2_0" index="0" allow="pedestrian delivery bicycle" speed="3.65" length="4.67" shape="375.02,319.81 375.77,318.57 376.55,318.14 377.37,318.51 378.22,319.67"/>
    </edge>
    <edge id=":1262361672_3" function="internal">