<?xml version="1.0" encoding="UTF-8"?>
<routes xmlns:xsi="http://www.w3.org/2001/XMLSchema-instance"
        xsi:noNamespaceSchemaLocation="http://sumo.dlr.de/xsd/routes_file.xsd">

  <!-- Fahrzeugtypen -->
  <vType id="bus_type"
         vClass="bus"
         length="12.0"
         maxSpeed="13.89"
         accel="1.2"
         decel="4.0"
         sigma="0.5"
         color="0,0,255"/>

  <vType id="emergency_type"
         vClass="emergency"
         length="6.5"
         maxSpeed="22.22"
         accel="3.0"
         decel="6.0"
         sigma="0.3"
         color="255,0,0"/>

  <!-- Bus: fährt von Westen nach Osten durch unsere TSP-Kreuzung -->
  <trip id="bus_0"
        type="bus_type"
        depart="30"
        from="-219525493#1"
        to="-174904016"
        departLane="best"
        departSpeed="max"/>

 <trip id="bus_1"
        type="bus_type"
        depart="100"
        from="-36268957#2"
        to="-174904016"
        departLane="best"
        departSpeed="max"/>

  <!-- Einsatzfahrzeug: fährt 5 Minuten später die gleiche Route -->
  <trip id="emergency_0"
        type="emergency_type"
        depart="105"
        from="174904017"
        to="-219525493#1"
        departLane="best"
        departSpeed="max"/>

</routes>